# Generated from the PW2PY python module
DIM-GROUP
        3      1
PRIMVEC
        10.265191682       0.000000000       0.000000000
        -5.132595840       8.889917538       0.000000000
         0.000000000       0.000000000      13.991233495
CONVVEC
        10.265191682       0.000000000       0.000000000
        -5.132595840       8.889917538       0.000000000
         0.000000000       0.000000000      13.991233495
PRIMCOORD
      120      1
    O           1.562721210       2.959843282      12.834075601
    O          -0.799381158       4.313982440      12.842505851
    O           3.347823164       2.835615797       1.157132080
    O           3.346728381       0.124005255       1.162832445
    O           1.001407009       1.479174106       1.165625417
    O          -0.785779010       1.598652393      12.830826305
    O           1.590720700       0.010812842       3.498116713
    O          -0.804258624       1.329073733       3.490593109
    O           0.732874024       4.318949780       5.832576435
    O           0.772428153       1.602691118       5.817637701
    O          -1.565388599       2.986165457       5.818125576
    O           1.743692690       3.066966149       3.495663028
    O           4.127314626       1.484363062       8.178030665
    O           1.767653705       2.777200255       8.149985713
    O           0.783054326       1.354574631      10.508489203
    O          -1.786929887       3.090713136      10.510180211
    O           3.561968284       0.001255372      10.505215786
    O           1.778710050       0.118852597       8.173354473
    Fe1        -0.004950881       2.949421863       0.288585099
    Fe2         0.009832396      -0.013012412       2.025643076
    Fe1         2.566457955       1.480461881      13.687260712
    Fe2         0.001148033      -0.005088704      11.966943231
    Fe1         0.004121444      -0.031282642       4.946330585
    Fe2         2.535241143       1.452067476       6.723993151
    Fe1        -0.062767900       2.914348738       4.357459659
    Fe2         2.571238819       1.468404815       2.613309749
    Fe1         2.571101101       1.510830098       9.648223800
    Fe2        -0.003902908       2.964099935      11.381348436
    Fe1         0.020910955       0.023571599       9.070569660
    Fe2         0.007984112       2.938169379       7.318865659
    O           6.700762104       2.965058384      12.830426044
    O           4.349351246       4.319473351      12.830570727
    O           8.480670569       2.833374391       1.156926213
    O           8.479745156       0.118686862       1.168997836
    O           6.129269165       1.485938097       1.147318937
    O           4.358349245       1.594622389      12.845838087
    O           6.622978958       0.081531416       3.470885407
    O           4.328442487       1.366387366       3.497949727
    O           5.939804014       4.295363771       5.807134538
    O           5.913645282       1.610307439       5.830174644
    O           3.580046205       2.935718464       5.837150589
    O           6.930026173       3.093546060       3.475026112
    O           9.259528391       1.487891959       8.189486757
    O           6.927937191       2.853618769       8.170682147
    O           5.919120900       1.351807057      10.509075505
    O           3.366185857       3.042631164      10.554631367
    O           8.696385195       0.000348574      10.499278746
    O           6.879462307       0.188085594       8.171883924
    Fe1         5.132341429       2.966267243       0.289064746
    Fe2         5.133004657       0.003690818       2.022855099
    Fe1         7.694272526       1.480344197      13.686944216
    Fe2         5.134846946      -0.002457973      11.970196683
    Fe1         5.123370760       0.002187222       4.949301218
    Fe2         7.690924734       1.570851567       6.708407994
    Fe1         5.191165099       2.919884570       4.359083090
    Fe2         7.690132498       1.481137346       2.596886545
    Fe1         7.702472233       1.493971951       9.656216152
    Fe2         5.135857596       2.956483783      11.377073694
    Fe1         5.086043551      -0.003017976       9.069346210
    Fe2         5.132443029       2.962983424       7.328410646
    O          -0.999106301       7.404309568      12.825195379
    O          -3.346193994       8.763478081      12.823090888
    O           0.783065572       7.276488840       1.168054770
    O           0.770115770       4.564497801       1.136976603
    O          -1.565050873       5.927026739       1.161182528
    O          -3.348237866       6.054736778      12.823198956
    O          -1.001461845       4.432596574       3.481718273
    O          -3.332382749       5.800729209       3.484303196
    O          -1.784428736       8.766169424       5.830926141
    O          -1.806274091       6.054313360       5.823654407
    O          -4.120373199       7.406580017       5.835216035
    O          -0.782551772       7.525511619       3.497160957
    O           1.496766861       5.962536767       8.132443854
    O          -0.813735355       7.296134829       8.181861185
    O          -1.781250792       5.801630211      10.501894910
    O          -4.354780145       7.526226075      10.497781684
    O           0.954417674       4.455718165      10.561913245
    O          -0.780096287       4.560478634       8.175800588
    Fe1        -2.559109468       7.407805003       0.286213935
    Fe2        -2.565148562       4.441416430       2.011551903
    Fe1         0.003570337       5.920789146      13.680430401
    Fe2        -2.567824621       4.446494484      11.964729426
    Fe1        -2.559183603       4.464872620       4.926964717
    Fe2        -0.076051201       5.933278893       6.737203352
    Fe1        -2.564364830       7.416587237       4.361364976
    Fe2        -0.019129631       5.922126945       2.612799629
    Fe1         0.019546814       5.906963653       9.657751312
    Fe2        -2.572511548       7.405211761      11.358143486
    Fe1        -2.555394552       4.457087106       9.051264975
    Fe2        -2.568423466       7.430388007       7.297602216
    O           4.134316478       7.414513051      12.834261628
    O           1.783285360       8.761765287      12.831207244
    O           5.928054527       7.277589092       1.146708653
    O           5.915613038       4.569477133       1.161764144
    O           3.576620962       5.930421700       1.154771423
    O           1.789963709       6.052043142      12.831057986
    O           4.149827295       4.411908856       3.496607240
    O           1.791150816       5.740300279       3.431499357
    O           3.367355833       8.843155158       5.877091335
    O           3.416294128       6.075095987       5.839610234
    O           0.949122087       7.391810610       5.838434061
    O           4.462523773       7.534531765       3.475602761
    O           6.736750131       5.936875283       8.172646754
    O           4.388096817       7.289484575       8.169695178
    O           3.352496701       5.812386905      10.512521182
    O           0.784864080       7.535571787      10.499107003
    O           6.139945596       4.441913848      10.508390662
    O           4.447752793       4.591469953       8.147557912
    Fe1         2.563366285       7.410344417       0.296139092
    Fe2         2.553579200       4.451426904       1.942403702
    Fe1         5.133704416       5.927689420      13.682959177
    Fe2         2.565857118       4.436029905      11.930417913
    Zr          2.554890681       4.454364133       4.920547484
    Fe2         5.243850046       5.877556934       6.732348254
    Fe1         2.583442126       7.506802263       4.235291902
    Fe2         5.156701853       5.933776826       2.611645912
    Fe1         5.114108781       5.890729445       9.646820829
    Fe2         2.568319384       7.402423892      11.373864875
    Fe1         2.542605243       4.419849215       9.032483563
    Zr          2.560939928       7.440454559       7.245435608
CONVCOORD
      120      1
    O           1.562721210       2.959843282      12.834075601
    O          -0.799381158       4.313982440      12.842505851
    O           3.347823164       2.835615797       1.157132080
    O           3.346728381       0.124005255       1.162832445
    O           1.001407009       1.479174106       1.165625417
    O          -0.785779010       1.598652393      12.830826305
    O           1.590720700       0.010812842       3.498116713
    O          -0.804258624       1.329073733       3.490593109
    O           0.732874024       4.318949780       5.832576435
    O           0.772428153       1.602691118       5.817637701
    O          -1.565388599       2.986165457       5.818125576
    O           1.743692690       3.066966149       3.495663028
    O           4.127314626       1.484363062       8.178030665
    O           1.767653705       2.777200255       8.149985713
    O           0.783054326       1.354574631      10.508489203
    O          -1.786929887       3.090713136      10.510180211
    O           3.561968284       0.001255372      10.505215786
    O           1.778710050       0.118852597       8.173354473
    Fe1        -0.004950881       2.949421863       0.288585099
    Fe2         0.009832396      -0.013012412       2.025643076
    Fe1         2.566457955       1.480461881      13.687260712
    Fe2         0.001148033      -0.005088704      11.966943231
    Fe1         0.004121444      -0.031282642       4.946330585
    Fe2         2.535241143       1.452067476       6.723993151
    Fe1        -0.062767900       2.914348738       4.357459659
    Fe2         2.571238819       1.468404815       2.613309749
    Fe1         2.571101101       1.510830098       9.648223800
    Fe2        -0.003902908       2.964099935      11.381348436
    Fe1         0.020910955       0.023571599       9.070569660
    Fe2         0.007984112       2.938169379       7.318865659
    O           6.700762104       2.965058384      12.830426044
    O           4.349351246       4.319473351      12.830570727
    O           8.480670569       2.833374391       1.156926213
    O           8.479745156       0.118686862       1.168997836
    O           6.129269165       1.485938097       1.147318937
    O           4.358349245       1.594622389      12.845838087
    O           6.622978958       0.081531416       3.470885407
    O           4.328442487       1.366387366       3.497949727
    O           5.939804014       4.295363771       5.807134538
    O           5.913645282       1.610307439       5.830174644
    O           3.580046205       2.935718464       5.837150589
    O           6.930026173       3.093546060       3.475026112
    O           9.259528391       1.487891959       8.189486757
    O           6.927937191       2.853618769       8.170682147
    O           5.919120900       1.351807057      10.509075505
    O           3.366185857       3.042631164      10.554631367
    O           8.696385195       0.000348574      10.499278746
    O           6.879462307       0.188085594       8.171883924
    Fe1         5.132341429       2.966267243       0.289064746
    Fe2         5.133004657       0.003690818       2.022855099
    Fe1         7.694272526       1.480344197      13.686944216
    Fe2         5.134846946      -0.002457973      11.970196683
    Fe1         5.123370760       0.002187222       4.949301218
    Fe2         7.690924734       1.570851567       6.708407994
    Fe1         5.191165099       2.919884570       4.359083090
    Fe2         7.690132498       1.481137346       2.596886545
    Fe1         7.702472233       1.493971951       9.656216152
    Fe2         5.135857596       2.956483783      11.377073694
    Fe1         5.086043551      -0.003017976       9.069346210
    Fe2         5.132443029       2.962983424       7.328410646
    O          -0.999106301       7.404309568      12.825195379
    O          -3.346193994       8.763478081      12.823090888
    O           0.783065572       7.276488840       1.168054770
    O           0.770115770       4.564497801       1.136976603
    O          -1.565050873       5.927026739       1.161182528
    O          -3.348237866       6.054736778      12.823198956
    O          -1.001461845       4.432596574       3.481718273
    O          -3.332382749       5.800729209       3.484303196
    O          -1.784428736       8.766169424       5.830926141
    O          -1.806274091       6.054313360       5.823654407
    O          -4.120373199       7.406580017       5.835216035
    O          -0.782551772       7.525511619       3.497160957
    O           1.496766861       5.962536767       8.132443854
    O          -0.813735355       7.296134829       8.181861185
    O          -1.781250792       5.801630211      10.501894910
    O          -4.354780145       7.526226075      10.497781684
    O           0.954417674       4.455718165      10.561913245
    O          -0.780096287       4.560478634       8.175800588
    Fe1        -2.559109468       7.407805003       0.286213935
    Fe2        -2.565148562       4.441416430       2.011551903
    Fe1         0.003570337       5.920789146      13.680430401
    Fe2        -2.567824621       4.446494484      11.964729426
    Fe1        -2.559183603       4.464872620       4.926964717
    Fe2        -0.076051201       5.933278893       6.737203352
    Fe1        -2.564364830       7.416587237       4.361364976
    Fe2        -0.019129631       5.922126945       2.612799629
    Fe1         0.019546814       5.906963653       9.657751312
    Fe2        -2.572511548       7.405211761      11.358143486
    Fe1        -2.555394552       4.457087106       9.051264975
    Fe2        -2.568423466       7.430388007       7.297602216
    O           4.134316478       7.414513051      12.834261628
    O           1.783285360       8.761765287      12.831207244
    O           5.928054527       7.277589092       1.146708653
    O           5.915613038       4.569477133       1.161764144
    O           3.576620962       5.930421700       1.154771423
    O           1.789963709       6.052043142      12.831057986
    O           4.149827295       4.411908856       3.496607240
    O           1.791150816       5.740300279       3.431499357
    O           3.367355833       8.843155158       5.877091335
    O           3.416294128       6.075095987       5.839610234
    O           0.949122087       7.391810610       5.838434061
    O           4.462523773       7.534531765       3.475602761
    O           6.736750131       5.936875283       8.172646754
    O           4.388096817       7.289484575       8.169695178
    O           3.352496701       5.812386905      10.512521182
    O           0.784864080       7.535571787      10.499107003
    O           6.139945596       4.441913848      10.508390662
    O           4.447752793       4.591469953       8.147557912
    Fe1         2.563366285       7.410344417       0.296139092
    Fe2         2.553579200       4.451426904       1.942403702
    Fe1         5.133704416       5.927689420      13.682959177
    Fe2         2.565857118       4.436029905      11.930417913
    Zr          2.554890681       4.454364133       4.920547484
    Fe2         5.243850046       5.877556934       6.732348254
    Fe1         2.583442126       7.506802263       4.235291902
    Fe2         5.156701853       5.933776826       2.611645912
    Fe1         5.114108781       5.890729445       9.646820829
    Fe2         2.568319384       7.402423892      11.373864875
    Fe1         2.542605243       4.419849215       9.032483563
    Zr          2.560939928       7.440454559       7.245435608
